$DATA1 SOURCE='HSPICE' VERSION='D-2010.03-SP2 32-BIT'
.TITLE 'inv 2'
 ttran            tpd              ttr              temper            
                  alter#            
  2.000e-10        8.835e-11        6.254e-11         25.0000         
                  2                 
  1.000e-09        2.042e-10        1.422e-10         25.0000         
                  2                 
