$DATA1 SOURCE='HSPICE' VERSION='D-2010.03-SP2 32-BIT'
.TITLE 'nand 10'
 ttran            tpd              ttr              temper            
                  alter#            
  2.000e-10        1.709e-10        1.578e-10         25.0000         
                  5                 
  1.000e-09        3.631e-10        2.485e-10         25.0000         
                  5                 
