$DATA1 SOURCE='HSPICE' VERSION='D-2010.03-SP2 32-BIT'
.TITLE 'testbench cir file for a liberty characterization of a combinational std'
 ttran            tpd              ttr              temper            
                  alter#            
  2.000e-10          failed           failed          25.0000         
                  1                 
  1.000e-09          failed           failed          25.0000         
                  1                 
