$DATA1 SOURCE='HSPICE' VERSION='D-2010.03-SP2 32-BIT'
.TITLE 'nor 2'
 ttran            tpd              ttr              temper            
                  alter#            
  2.000e-10        1.257e-10        7.722e-11         25.0000         
                  6                 
  1.000e-09        2.360e-10        1.319e-10         25.0000         
                  6                 
