$DATA1 SOURCE='HSPICE' VERSION='D-2010.03-SP2 32-BIT'
.TITLE 'nand 2'
 ttran            tpd              ttr              temper            
                  alter#            
  2.000e-10        1.068e-10        7.579e-11         25.0000         
                  4                 
  1.000e-09        2.458e-10        1.630e-10         25.0000         
                  4                 
